
OS:Version,
  {e40309c5-3a7d-4a1b-b152-bad870627679}, !- Handle
  3.7.0;                                  !- Version Identifier

OS:SimulationControl,
  {e0bfe010-d7de-4ca5-8c74-d9ead2003ca2}, !- Handle
  Yes,                                    !- Do Zone Sizing Calculation
  Yes,                                    !- Do System Sizing Calculation
  ,                                       !- Do Plant Sizing Calculation
  No,                                     !- Run Simulation for Sizing Periods
  Yes;                                    !- Run Simulation for Weather File Run Periods

OS:Timestep,
  {301ee981-05fa-4e96-95f1-5207dec931d6}, !- Handle
  6;                                      !- Number of Timesteps per Hour

OS:RunPeriod,
  {620faf27-f467-4c03-a35f-b199ea5de9fc}, !- Handle
  Run Period 1,                           !- Name
  1,                                      !- Begin Month
  1,                                      !- Begin Day of Month
  12,                                     !- End Month
  31,                                     !- End Day of Month
  No,                                     !- Use Weather File Holidays and Special Days
  No,                                     !- Use Weather File Daylight Saving Period
  No,                                     !- Apply Weekend Holiday Rule
  Yes,                                    !- Use Weather File Rain Indicators
  Yes,                                    !- Use Weather File Snow Indicators
  1;                                      !- Number of Times Runperiod to be Repeated

OS:SurfaceConvectionAlgorithm:Inside,
  {86faac71-4b77-4e5e-af22-88320b412738}, !- Handle
  TARP;                                   !- Algorithm

OS:SurfaceConvectionAlgorithm:Outside,
  {0b361a1b-e35f-431d-891b-cb81055697eb}, !- Handle
  DOE-2;                                  !- Algorithm

OS:HeatBalanceAlgorithm,
  {6dd69667-e371-4512-a44a-88d607579b1a}, !- Handle
  ConductionTransferFunction,             !- Algorithm
  200;                                    !- Surface Temperature Upper Limit {C}

OS:ZoneAirHeatBalanceAlgorithm,
  {36543551-5485-4c26-9119-c3f7250805b3}, !- Handle
  ,                                       !- Algorithm
  ,                                       !- Do Space Heat Balance for Sizing
  ;                                       !- Do Space Heat Balance for Simulation

OS:ConvergenceLimits,
  {da168470-2042-4863-bd28-f54a4b4c3806}, !- Handle
  1;                                      !- Minimum System Timestep {minutes}

OS:ShadowCalculation,
  {2df7d682-f7ea-4c42-8f3e-1c8494f385f1}, !- Handle
  PolygonClipping,                        !- Shading Calculation Method
  ,                                       !- Shading Calculation Update Frequency Method
  20,                                     !- Shading Calculation Update Frequency
  15000,                                  !- Maximum Figures in Shadow Overlap Calculations
  ,                                       !- Polygon Clipping Algorithm
  512,                                    !- Pixel Counting Resolution
  ,                                       !- Sky Diffuse Modeling Algorithm
  No,                                     !- Output External Shading Calculation Results
  No,                                     !- Disable Self-Shading Within Shading Zone Groups
  No;                                     !- Disable Self-Shading From Shading Zone Groups to Other Zones

OS:Site,
  {585ab045-ee87-4f32-aa92-95a690bd7c8d}, !- Handle
  Site 1,                                 !- Name
  41.77,                                  !- Latitude {deg}
  -87.75,                                 !- Longitude {deg}
  -6,                                     !- Time Zone {hr}
  190,                                    !- Elevation {m}
  ;                                       !- Terrain

OS:Site:GroundTemperature:BuildingSurface,
  {d97c0723-3dc3-4281-be1f-a834ddd4cadc}, !- Handle
  19.527,                                 !- January Ground Temperature {C}
  19.502,                                 !- February Ground Temperature {C}
  19.536,                                 !- March Ground Temperature {C}
  19.598,                                 !- April Ground Temperature {C}
  20.002,                                 !- May Ground Temperature {C}
  21.64,                                  !- June Ground Temperature {C}
  22.225,                                 !- July Ground Temperature {C}
  22.375,                                 !- August Ground Temperature {C}
  21.449,                                 !- September Ground Temperature {C}
  20.121,                                 !- October Ground Temperature {C}
  19.802,                                 !- November Ground Temperature {C}
  19.633;                                 !- December Ground Temperature {C}

OS:Site:GroundTemperature:Deep,
  {d8f4126f-39a2-4834-b50f-830558423154}, !- Handle
  19.527,                                 !- January Deep Ground Temperature {C}
  19.502,                                 !- February Deep Ground Temperature {C}
  19.536,                                 !- March Deep Ground Temperature {C}
  19.598,                                 !- April Deep Ground Temperature {C}
  20.002,                                 !- May Deep Ground Temperature {C}
  21.64,                                  !- June Deep Ground Temperature {C}
  22.225,                                 !- July Deep Ground Temperature {C}
  22.375,                                 !- August Deep Ground Temperature {C}
  21.449,                                 !- September Deep Ground Temperature {C}
  20.121,                                 !- October Deep Ground Temperature {C}
  19.802,                                 !- November Deep Ground Temperature {C}
  19.633;                                 !- December Deep Ground Temperature {C}

OS:Site:WaterMainsTemperature,
  {1f1b59ff-7b8b-4164-b1d8-d9236554e537}, !- Handle
  Correlation,                            !- Calculation Method
  ,                                       !- Temperature Schedule Name
  9.69,                                   !- Annual Average Outdoor Air Temperature {C}
  28.1;                                   !- Maximum Difference In Monthly Average Outdoor Air Temperatures {deltaC}

OS:SizingPeriod:DesignDay,
  {c4e53524-847d-4fec-9333-919041c2a8ba}, !- Handle
  Sizing Period Design Day 1,             !- Name
  -20.6,                                  !- Maximum Dry-Bulb Temperature {C}
  0,                                      !- Daily Dry-Bulb Temperature Range {deltaC}
  99063,                                  !- Barometric Pressure {Pa}
  4.9,                                    !- Wind Speed {m/s}
  270,                                    !- Wind Direction {deg}
  0,                                      !- Sky Clearness
  No,                                     !- Rain Indicator
  No,                                     !- Snow Indicator
  21,                                     !- Day of Month
  1,                                      !- Month
  WinterDesignDay,                        !- Day Type
  No,                                     !- Daylight Saving Time Indicator
  WetBulb,                                !- Humidity Condition Type
  ,                                       !- Humidity Condition Day Schedule Name
  -20.6,                                  !- Wetbulb or DewPoint at Maximum Dry-Bulb {C}
  ,                                       !- Humidity Ratio at Maximum Dry-Bulb {kgWater/kgDryAir}
  ,                                       !- Enthalpy at Maximum Dry-Bulb {J/kg}
  ;                                       !- Dry-Bulb Temperature Range Modifier Type

OS:SizingPeriod:DesignDay,
  {040d53b8-250a-40ea-b758-45513e1bde8e}, !- Handle
  Sizing Period Design Day 2,             !- Name
  33.2,                                   !- Maximum Dry-Bulb Temperature {C}
  10.7,                                   !- Daily Dry-Bulb Temperature Range {deltaC}
  99063,                                  !- Barometric Pressure {Pa}
  5.3,                                    !- Wind Speed {m/s}
  230,                                    !- Wind Direction {deg}
  1,                                      !- Sky Clearness
  No,                                     !- Rain Indicator
  No,                                     !- Snow Indicator
  21,                                     !- Day of Month
  7,                                      !- Month
  SummerDesignDay,                        !- Day Type
  No,                                     !- Daylight Saving Time Indicator
  WetBulb,                                !- Humidity Condition Type
  ,                                       !- Humidity Condition Day Schedule Name
  23.8,                                   !- Wetbulb or DewPoint at Maximum Dry-Bulb {C}
  ,                                       !- Humidity Ratio at Maximum Dry-Bulb {kgWater/kgDryAir}
  ,                                       !- Enthalpy at Maximum Dry-Bulb {J/kg}
  ;                                       !- Dry-Bulb Temperature Range Modifier Type

OS:ScheduleTypeLimits,
  {945a9e7f-2266-400c-a1de-5bdb544da9a4}, !- Handle
  Temperature,                            !- Name
  -60,                                    !- Lower Limit Value
  200,                                    !- Upper Limit Value
  CONTINUOUS,                             !- Numeric Type
  Temperature;                            !- Unit Type

OS:DefaultScheduleSet,
  {8751ed6d-85d7-46e3-84eb-48b342f829e8}, !- Handle
  Default Schedules,                      !- Name
  ,                                       !- Hours of Operation Schedule Name
  {178d4bff-7138-479b-94fe-3009359c5bd3}, !- Number of People Schedule Name
  {1ee0e4dc-ef3d-4e7b-a811-ba3f2a484f36}, !- People Activity Level Schedule Name
  {ca836d01-1308-4a09-be12-5c8c672a0069}, !- Lighting Schedule Name
  {808c7bc9-2f0e-4ac4-9eaf-6e017a14f320}, !- Electric Equipment Schedule Name
  {11eab525-2d6f-4e22-b378-e967a6bde2a7}, !- Gas Equipment Schedule Name
  {b724aef9-aa56-4ed9-8a32-9cc802a9a0b5}, !- Hot Water Equipment Schedule Name
  {03431693-ce25-4823-80cb-500f7b360659}, !- Infiltration Schedule Name
  ,                                       !- Steam Equipment Schedule Name
  ;                                       !- Other Equipment Schedule Name

OS:Schedule:Ruleset,
  {178d4bff-7138-479b-94fe-3009359c5bd3}, !- Handle
  Medium Office Number of People Schedule, !- Name
  {249774bf-2702-45b8-a584-1c07645555e4}, !- Schedule Type Limits Name
  {2540d3a5-6f70-4a8c-86af-a6106a11662a}, !- Default Day Schedule Name
  {2380801f-505e-4bd9-9724-c0d8e98aa567}; !- Summer Design Day Schedule Name

OS:Schedule:Day,
  {2540d3a5-6f70-4a8c-86af-a6106a11662a}, !- Handle
  Medium Office Number of People All Other Days Schedule, !- Name
  {249774bf-2702-45b8-a584-1c07645555e4}, !- Schedule Type Limits Name
  ,                                       !- Interpolate to Timestep
  24,                                     !- Hour 1
  0,                                      !- Minute 1
  0;                                      !- Value Until Time 1

OS:Schedule:Day,
  {edfb2df2-3b61-462a-b0de-fb6ca64b00cc}, !- Handle
  Medium Office Number of People Summer Design Day Schedule, !- Name
  ,                                       !- Schedule Type Limits Name
  ,                                       !- Interpolate to Timestep
  6,                                      !- Hour 1
  0,                                      !- Minute 1
  0,                                      !- Value Until Time 1
  22,                                     !- Hour 2
  0,                                      !- Minute 2
  1,                                      !- Value Until Time 2
  24,                                     !- Hour 3
  0,                                      !- Minute 3
  0.05;                                   !- Value Until Time 3

OS:Schedule:Day,
  {2380801f-505e-4bd9-9724-c0d8e98aa567}, !- Handle
  Medium Office Number of People Summer Design Day Schedule 1, !- Name
  {249774bf-2702-45b8-a584-1c07645555e4}, !- Schedule Type Limits Name
  ,                                       !- Interpolate to Timestep
  6,                                      !- Hour 1
  0,                                      !- Minute 1
  0,                                      !- Value Until Time 1
  22,                                     !- Hour 2
  0,                                      !- Minute 2
  1,                                      !- Value Until Time 2
  24,                                     !- Hour 3
  0,                                      !- Minute 3
  0.05;                                   !- Value Until Time 3

OS:Schedule:Rule,
  {a26b3f0d-054a-4d5e-adcf-631712fdefea}, !- Handle
  Medium Office Number of People Schedule Weekdays Rule, !- Name
  {178d4bff-7138-479b-94fe-3009359c5bd3}, !- Schedule Ruleset Name
  1,                                      !- Rule Order
  {0e777057-3ae2-4b84-8612-41b3e963ca3e}, !- Day Schedule Name
  ,                                       !- Apply Sunday
  Yes,                                    !- Apply Monday
  Yes,                                    !- Apply Tuesday
  Yes,                                    !- Apply Wednesday
  Yes,                                    !- Apply Thursday
  Yes;                                    !- Apply Friday

OS:Schedule:Day,
  {0e777057-3ae2-4b84-8612-41b3e963ca3e}, !- Handle
  Medium Office Number of People Weekdays Schedule, !- Name
  {249774bf-2702-45b8-a584-1c07645555e4}, !- Schedule Type Limits Name
  ,                                       !- Interpolate to Timestep
  6,                                      !- Hour 1
  0,                                      !- Minute 1
  0,                                      !- Value Until Time 1
  7,                                      !- Hour 2
  0,                                      !- Minute 2
  0.1,                                    !- Value Until Time 2
  8,                                      !- Hour 3
  0,                                      !- Minute 3
  0.2,                                    !- Value Until Time 3
  12,                                     !- Hour 4
  0,                                      !- Minute 4
  0.95,                                   !- Value Until Time 4
  13,                                     !- Hour 5
  0,                                      !- Minute 5
  0.5,                                    !- Value Until Time 5
  17,                                     !- Hour 6
  0,                                      !- Minute 6
  0.95,                                   !- Value Until Time 6
  18,                                     !- Hour 7
  0,                                      !- Minute 7
  0.7,                                    !- Value Until Time 7
  20,                                     !- Hour 8
  0,                                      !- Minute 8
  0.4,                                    !- Value Until Time 8
  22,                                     !- Hour 9
  0,                                      !- Minute 9
  0.1,                                    !- Value Until Time 9
  24,                                     !- Hour 10
  0,                                      !- Minute 10
  0.05;                                   !- Value Until Time 10

OS:Schedule:Rule,
  {5a2327c5-f37c-4a56-ae69-0f2320b613c4}, !- Handle
  Medium Office Number of People Schedule Saturday Rule, !- Name
  {178d4bff-7138-479b-94fe-3009359c5bd3}, !- Schedule Ruleset Name
  0,                                      !- Rule Order
  {3f0d9a7a-41e1-49a1-b715-9952ee4d6a76}, !- Day Schedule Name
  ,                                       !- Apply Sunday
  ,                                       !- Apply Monday
  ,                                       !- Apply Tuesday
  ,                                       !- Apply Wednesday
  ,                                       !- Apply Thursday
  ,                                       !- Apply Friday
  Yes;                                    !- Apply Saturday

OS:Schedule:Day,
  {3f0d9a7a-41e1-49a1-b715-9952ee4d6a76}, !- Handle
  Medium Office Number of People Saturday Schedule, !- Name
  {249774bf-2702-45b8-a584-1c07645555e4}, !- Schedule Type Limits Name
  ,                                       !- Interpolate to Timestep
  6,                                      !- Hour 1
  0,                                      !- Minute 1
  0,                                      !- Value Until Time 1
  8,                                      !- Hour 2
  0,                                      !- Minute 2
  0.1,                                    !- Value Until Time 2
  14,                                     !- Hour 3
  0,                                      !- Minute 3
  0.5,                                    !- Value Until Time 3
  17,                                     !- Hour 4
  0,                                      !- Minute 4
  0.1,                                    !- Value Until Time 4
  24,                                     !- Hour 5
  0,                                      !- Minute 5
  0;                                      !- Value Until Time 5

OS:ScheduleTypeLimits,
  {249774bf-2702-45b8-a584-1c07645555e4}, !- Handle
  Fractional,                             !- Name
  0,                                      !- Lower Limit Value
  1,                                      !- Upper Limit Value
  Continuous;                             !- Numeric Type

OS:Schedule:Ruleset,
  {1ee0e4dc-ef3d-4e7b-a811-ba3f2a484f36}, !- Handle
  Medium Office People Activity Level Schedule, !- Name
  {dc07ca69-ec4c-484c-9038-7ff2d01bc733}, !- Schedule Type Limits Name
  {1757cd8d-b804-408c-9683-de4d18a2383c}; !- Default Day Schedule Name

OS:Schedule:Day,
  {1757cd8d-b804-408c-9683-de4d18a2383c}, !- Handle
  Medium Office People Activity Level All Days Schedule, !- Name
  {dc07ca69-ec4c-484c-9038-7ff2d01bc733}, !- Schedule Type Limits Name
  ,                                       !- Interpolate to Timestep
  24,                                     !- Hour 1
  0,                                      !- Minute 1
  120;                                    !- Value Until Time 1

OS:ScheduleTypeLimits,
  {dc07ca69-ec4c-484c-9038-7ff2d01bc733}, !- Handle
  ActivityLevel,                          !- Name
  0,                                      !- Lower Limit Value
  ,                                       !- Upper Limit Value
  Continuous,                             !- Numeric Type
  ActivityLevel;                          !- Unit Type

OS:Schedule:Ruleset,
  {ca836d01-1308-4a09-be12-5c8c672a0069}, !- Handle
  Medium Office Lighting Schedule,        !- Name
  {249774bf-2702-45b8-a584-1c07645555e4}, !- Schedule Type Limits Name
  {398d10c5-f7e4-405f-931b-b916420aac3f}, !- Default Day Schedule Name
  {24ec5906-c7e8-40d4-ab83-ab145ea47c03}, !- Summer Design Day Schedule Name
  {62f38cde-566f-4496-b356-fc6c576d0c9a}; !- Winter Design Day Schedule Name

OS:Schedule:Day,
  {398d10c5-f7e4-405f-931b-b916420aac3f}, !- Handle
  Medium Office Lighting All Other Days Schedule, !- Name
  {249774bf-2702-45b8-a584-1c07645555e4}, !- Schedule Type Limits Name
  ,                                       !- Interpolate to Timestep
  24,                                     !- Hour 1
  0,                                      !- Minute 1
  0.05;                                   !- Value Until Time 1

OS:Schedule:Day,
  {c65e4fd5-0174-4aa3-b638-029727caf305}, !- Handle
  Medium Office Lighting Summer Design Day Schedule, !- Name
  ,                                       !- Schedule Type Limits Name
  ,                                       !- Interpolate to Timestep
  6,                                      !- Hour 1
  0,                                      !- Minute 1
  1,                                      !- Value Until Time 1
  24,                                     !- Hour 2
  0,                                      !- Minute 2
  0;                                      !- Value Until Time 2

OS:Schedule:Day,
  {24ec5906-c7e8-40d4-ab83-ab145ea47c03}, !- Handle
  Medium Office Lighting Summer Design Day Schedule 1, !- Name
  {249774bf-2702-45b8-a584-1c07645555e4}, !- Schedule Type Limits Name
  ,                                       !- Interpolate to Timestep
  6,                                      !- Hour 1
  0,                                      !- Minute 1
  1,                                      !- Value Until Time 1
  24,                                     !- Hour 2
  0,                                      !- Minute 2
  0;                                      !- Value Until Time 2

OS:Schedule:Day,
  {d2774359-d1ba-4d03-acd1-062c6853738e}, !- Handle
  Medium Office Lighting Winter Design Day Schedule, !- Name
  ,                                       !- Schedule Type Limits Name
  ,                                       !- Interpolate to Timestep
  24,                                     !- Hour 1
  0,                                      !- Minute 1
  0;                                      !- Value Until Time 1

OS:Schedule:Day,
  {62f38cde-566f-4496-b356-fc6c576d0c9a}, !- Handle
  Medium Office Lighting Winter Design Day Schedule 1, !- Name
  {249774bf-2702-45b8-a584-1c07645555e4}, !- Schedule Type Limits Name
  ,                                       !- Interpolate to Timestep
  24,                                     !- Hour 1
  0,                                      !- Minute 1
  0;                                      !- Value Until Time 1

OS:Schedule:Rule,
  {5bbf3912-54fd-4aac-a2cd-8d1065797790}, !- Handle
  Medium Office Lighting Schedule Weekdays Rule, !- Name
  {ca836d01-1308-4a09-be12-5c8c672a0069}, !- Schedule Ruleset Name
  1,                                      !- Rule Order
  {01a03474-b020-4499-bdcb-5a31ebbf91cd}, !- Day Schedule Name
  ,                                       !- Apply Sunday
  Yes,                                    !- Apply Monday
  Yes,                                    !- Apply Tuesday
  Yes,                                    !- Apply Wednesday
  Yes,                                    !- Apply Thursday
  Yes;                                    !- Apply Friday

OS:Schedule:Day,
  {01a03474-b020-4499-bdcb-5a31ebbf91cd}, !- Handle
  Medium Office Lighting Weekdays Schedule, !- Name
  {249774bf-2702-45b8-a584-1c07645555e4}, !- Schedule Type Limits Name
  ,                                       !- Interpolate to Timestep
  5,                                      !- Hour 1
  0,                                      !- Minute 1
  0.05,                                   !- Value Until Time 1
  7,                                      !- Hour 2
  0,                                      !- Minute 2
  0.1,                                    !- Value Until Time 2
  8,                                      !- Hour 3
  0,                                      !- Minute 3
  0.3,                                    !- Value Until Time 3
  17,                                     !- Hour 4
  0,                                      !- Minute 4
  0.9,                                    !- Value Until Time 4
  18,                                     !- Hour 5
  0,                                      !- Minute 5
  0.7,                                    !- Value Until Time 5
  20,                                     !- Hour 6
  0,                                      !- Minute 6
  0.5,                                    !- Value Until Time 6
  22,                                     !- Hour 7
  0,                                      !- Minute 7
  0.3,                                    !- Value Until Time 7
  23,                                     !- Hour 8
  0,                                      !- Minute 8
  0.1,                                    !- Value Until Time 8
  24,                                     !- Hour 9
  0,                                      !- Minute 9
  0.05;                                   !- Value Until Time 9

OS:Schedule:Rule,
  {025d0bc4-f8f7-4c1b-aa34-c4e6771b9ad2}, !- Handle
  Medium Office Lighting Schedule Saturday Rule, !- Name
  {ca836d01-1308-4a09-be12-5c8c672a0069}, !- Schedule Ruleset Name
  0,                                      !- Rule Order
  {86d5a4be-77c2-40ea-8983-a79814b0cb4b}, !- Day Schedule Name
  ,                                       !- Apply Sunday
  ,                                       !- Apply Monday
  ,                                       !- Apply Tuesday
  ,                                       !- Apply Wednesday
  ,                                       !- Apply Thursday
  ,                                       !- Apply Friday
  Yes;                                    !- Apply Saturday

OS:Schedule:Day,
  {86d5a4be-77c2-40ea-8983-a79814b0cb4b}, !- Handle
  Medium Office Lighting Saturday Schedule, !- Name
  {249774bf-2702-45b8-a584-1c07645555e4}, !- Schedule Type Limits Name
  ,                                       !- Interpolate to Timestep
  6,                                      !- Hour 1
  0,                                      !- Minute 1
  0.05,                                   !- Value Until Time 1
  8,                                      !- Hour 2
  0,                                      !- Minute 2
  0.1,                                    !- Value Until Time 2
  14,                                     !- Hour 3
  0,                                      !- Minute 3
  0.5,                                    !- Value Until Time 3
  17,                                     !- Hour 4
  0,                                      !- Minute 4
  0.15,                                   !- Value Until Time 4
  24,                                     !- Hour 5
  0,                                      !- Minute 5
  0.05;                                   !- Value Until Time 5

OS:Schedule:Ruleset,
  {808c7bc9-2f0e-4ac4-9eaf-6e017a14f320}, !- Handle
  Medium Office Electric Equipment Schedule, !- Name
  {249774bf-2702-45b8-a584-1c07645555e4}, !- Schedule Type Limits Name
  {aadfd33a-806e-4195-92f8-68759e15f278}, !- Default Day Schedule Name
  {c45bd387-f0d2-4bc8-9198-ad2bbebe2d45}, !- Summer Design Day Schedule Name
  {126e9f5c-5783-4160-a918-ab74a14762a8}; !- Winter Design Day Schedule Name

OS:Schedule:Day,
  {aadfd33a-806e-4195-92f8-68759e15f278}, !- Handle
  Medium Office Electric Equipment All Other Days Schedule, !- Name
  {249774bf-2702-45b8-a584-1c07645555e4}, !- Schedule Type Limits Name
  ,                                       !- Interpolate to Timestep
  24,                                     !- Hour 1
  0,                                      !- Minute 1
  0.3;                                    !- Value Until Time 1

OS:Schedule:Day,
  {f39ddb18-a86b-42cb-b03a-c35cc58508ff}, !- Handle
  Medium Office Electric Equipment Summer Design Day Schedule, !- Name
  ,                                       !- Schedule Type Limits Name
  ,                                       !- Interpolate to Timestep
  6,                                      !- Hour 1
  0,                                      !- Minute 1
  1,                                      !- Value Until Time 1
  24,                                     !- Hour 2
  0,                                      !- Minute 2
  0;                                      !- Value Until Time 2

OS:Schedule:Day,
  {c45bd387-f0d2-4bc8-9198-ad2bbebe2d45}, !- Handle
  Medium Office Electric Equipment Summer Design Day Schedule 1, !- Name
  {249774bf-2702-45b8-a584-1c07645555e4}, !- Schedule Type Limits Name
  ,                                       !- Interpolate to Timestep
  6,                                      !- Hour 1
  0,                                      !- Minute 1
  1,                                      !- Value Until Time 1
  24,                                     !- Hour 2
  0,                                      !- Minute 2
  0;                                      !- Value Until Time 2

OS:Schedule:Day,
  {6c769014-798e-4575-abe5-ad7996489d1f}, !- Handle
  Medium Office Electric Equipment Winter Design Day Schedule, !- Name
  ,                                       !- Schedule Type Limits Name
  ,                                       !- Interpolate to Timestep
  24,                                     !- Hour 1
  0,                                      !- Minute 1
  0;                                      !- Value Until Time 1

OS:Schedule:Day,
  {126e9f5c-5783-4160-a918-ab74a14762a8}, !- Handle
  Medium Office Electric Equipment Winter Design Day Schedule 1, !- Name
  {249774bf-2702-45b8-a584-1c07645555e4}, !- Schedule Type Limits Name
  ,                                       !- Interpolate to Timestep
  24,                                     !- Hour 1
  0,                                      !- Minute 1
  0;                                      !- Value Until Time 1

OS:Schedule:Rule,
  {4e7ff498-7e47-46cb-82f2-7e4833f01e8e}, !- Handle
  Medium Office Electric Equipment Schedule Weekdays Rule, !- Name
  {808c7bc9-2f0e-4ac4-9eaf-6e017a14f320}, !- Schedule Ruleset Name
  1,                                      !- Rule Order
  {ba77572a-22b9-40e1-95d0-79e70edb37e6}, !- Day Schedule Name
  ,                                       !- Apply Sunday
  Yes,                                    !- Apply Monday
  Yes,                                    !- Apply Tuesday
  Yes,                                    !- Apply Wednesday
  Yes,                                    !- Apply Thursday
  Yes;                                    !- Apply Friday

OS:Schedule:Day,
  {ba77572a-22b9-40e1-95d0-79e70edb37e6}, !- Handle
  Medium Office Electric Equipment Weekdays Schedule, !- Name
  {249774bf-2702-45b8-a584-1c07645555e4}, !- Schedule Type Limits Name
  ,                                       !- Interpolate to Timestep
  8,                                      !- Hour 1